4
q [0, 0, 0] , b 1  , div 0 / 10
Fe 0.0 0.0 0.0
Fe 1.80298 1.80298 0.0
S 0.0 1.80298 1.378595
S 1.80298 0.0 3.654375
4
q [0, 0, 0] , b 2  , div 1 / 10
Fe 0.0 0.0 0.0
Fe 1.80298 1.80298 0.0
S 0.0 1.80298 1.34483397918
S 1.80298 0.0 3.68813602082
4
q [0, 0, 0] , b 3  , div 2 / 10
Fe 0.0 0.0 0.0
Fe 1.80298 1.80298 0.0
S 0.0 1.80298 1.25644647918
S 1.80298 0.0 3.77652352082
4
q [0, 0, 0] , b 4  , div 3 / 10
Fe 0.0 0.0 0.0
Fe 1.80298 1.80298 0.0
S 0.0 1.80298 1.14719352082
S 1.80298 0.0 3.88577647918
4
q [0, 0, 0] , b 5  , div 4 / 10
Fe 0.0 0.0 0.0
Fe 1.80298 1.80298 0.0
S 0.0 1.80298 1.05880602082
S 1.80298 0.0 3.97416397918
4
q [0, 0, 0] , b 6  , div 5 / 10
Fe 0.0 0.0 0.0
Fe 1.80298 1.80298 0.0
S 0.0 1.80298 1.025045
S 1.80298 0.0 4.007925
4
q [0, 0, 0] , b 7  , div 6 / 10
Fe 0.0 0.0 0.0
Fe 1.80298 1.80298 0.0
S 0.0 1.80298 1.05880602082
S 1.80298 0.0 3.97416397918
4
q [0, 0, 0] , b 8  , div 7 / 10
Fe 0.0 0.0 0.0
Fe 1.80298 1.80298 0.0
S 0.0 1.80298 1.14719352082
S 1.80298 0.0 3.88577647918
4
q [0, 0, 0] , b 9  , div 8 / 10
Fe 0.0 0.0 0.0
Fe 1.80298 1.80298 0.0
S 0.0 1.80298 1.25644647918
S 1.80298 0.0 3.77652352082
4
q [0, 0, 0] , b 10  , div 9 / 10
Fe 0.0 0.0 0.0
Fe 1.80298 1.80298 0.0
S 0.0 1.80298 1.34483397918
S 1.80298 0.0 3.68813602082
