4
q [0, 0, 0] , b 1  , div 0 / 10
Fe -0.0753 -0.099475 -0.00785
Fe 1.72768 1.703505 -0.00785
S -0.0753 1.703505 1.19397
S 1.72768 -0.099475 3.8233
4
q [0, 0, 0] , b 2  , div 1 / 10
Fe -0.0609189796764 -0.0804769655154 -0.00635078340584
Fe 1.74206102032 1.72250303448 -0.00635078340584
S -0.0609189796764 1.72250303448 1.19546921659
S 1.74206102032 -0.0804769655154 3.82479921659
4
q [0, 0, 0] , b 3  , div 2 / 10
Fe -0.0232689796764 -0.0307394655154 -0.00242578340584
Fe 1.77971102032 1.77224053448 -0.00242578340584
S -0.0232689796764 1.77224053448 1.19939421659
S 1.77971102032 -0.0307394655154 3.82872421659
4
q [0, 0, 0] , b 4  , div 3 / 10
Fe 0.0232689796764 0.0307394655154 0.00242578340584
Fe 1.82624897968 1.83371946552 0.00242578340584
S 0.0232689796764 1.83371946552 1.20424578341
S 1.82624897968 0.0307394655154 3.83357578341
4
q [0, 0, 0] , b 5  , div 4 / 10
Fe 0.0609189796764 0.0804769655154 0.00635078340584
Fe 1.86389897968 1.88345696552 0.00635078340584
S 0.0609189796764 1.88345696552 1.20817078341
S 1.86389897968 0.0804769655154 3.83750078341
4
q [0, 0, 0] , b 6  , div 5 / 10
Fe 0.0753 0.099475 0.00785
Fe 1.87828 1.902455 0.00785
S 0.0753 1.902455 1.20967
S 1.87828 0.099475 3.839
4
q [0, 0, 0] , b 7  , div 6 / 10
Fe 0.0609189796764 0.0804769655154 0.00635078340584
Fe 1.86389897968 1.88345696552 0.00635078340584
S 0.0609189796764 1.88345696552 1.20817078341
S 1.86389897968 0.0804769655154 3.83750078341
4
q [0, 0, 0] , b 8  , div 7 / 10
Fe 0.0232689796764 0.0307394655154 0.00242578340584
Fe 1.82624897968 1.83371946552 0.00242578340584
S 0.0232689796764 1.83371946552 1.20424578341
S 1.82624897968 0.0307394655154 3.83357578341
4
q [0, 0, 0] , b 9  , div 8 / 10
Fe -0.0232689796764 -0.0307394655154 -0.00242578340584
Fe 1.77971102032 1.77224053448 -0.00242578340584
S -0.0232689796764 1.77224053448 1.19939421659
S 1.77971102032 -0.0307394655154 3.82872421659
4
q [0, 0, 0] , b 10  , div 9 / 10
Fe -0.0609189796764 -0.0804769655154 -0.00635078340584
Fe 1.74206102032 1.72250303448 -0.00635078340584
S -0.0609189796764 1.72250303448 1.19546921659
S 1.74206102032 -0.0804769655154 3.82479921659
