4
q [0, 0, 0] , b 1  , div 0 / 10
Fe 0.083675 0.02735 0.0
Fe 1.886655 1.83033 0.0
S -0.1457 1.755355 1.20182
S 1.65728 -0.047625 3.83115
4
q [0, 0, 0] , b 2  , div 1 / 10
Fe 0.0676944970043 0.0221266147962 0.0
Fe 1.870674497 1.8251066148 0.0
S -0.11787377608 1.76445056564 1.20182
S 1.68510622392 -0.0385294343571 3.83115
4
q [0, 0, 0] , b 3  , div 2 / 10
Fe 0.0258569970043 0.00845161479615 0.0
Fe 1.828836997 1.8114316148 0.0
S -0.0450237760804 1.78826306564 1.20182
S 1.75795622392 -0.0147169343571 3.83115
4
q [0, 0, 0] , b 4  , div 3 / 10
Fe -0.0258569970043 -0.00845161479615 0.0
Fe 1.777123003 1.7945283852 0.0
S 0.0450237760804 1.81769693436 1.20182
S 1.84800377608 0.0147169343571 3.83115
4
q [0, 0, 0] , b 5  , div 4 / 10
Fe -0.0676944970043 -0.0221266147962 0.0
Fe 1.735285503 1.7808533852 0.0
S 0.11787377608 1.84150943436 1.20182
S 1.92085377608 0.0385294343571 3.83115
4
q [0, 0, 0] , b 6  , div 5 / 10
Fe -0.083675 -0.02735 0.0
Fe 1.719305 1.77563 0.0
S 0.1457 1.850605 1.20182
S 1.94868 0.047625 3.83115
4
q [0, 0, 0] , b 7  , div 6 / 10
Fe -0.0676944970043 -0.0221266147962 0.0
Fe 1.735285503 1.7808533852 0.0
S 0.11787377608 1.84150943436 1.20182
S 1.92085377608 0.0385294343571 3.83115
4
q [0, 0, 0] , b 8  , div 7 / 10
Fe -0.0258569970043 -0.00845161479615 0.0
Fe 1.777123003 1.7945283852 0.0
S 0.0450237760804 1.81769693436 1.20182
S 1.84800377608 0.0147169343571 3.83115
4
q [0, 0, 0] , b 9  , div 8 / 10
Fe 0.0258569970043 0.00845161479615 0.0
Fe 1.828836997 1.8114316148 0.0
S -0.0450237760804 1.78826306564 1.20182
S 1.75795622392 -0.0147169343571 3.83115
4
q [0, 0, 0] , b 10  , div 9 / 10
Fe 0.0676944970043 0.0221266147962 0.0
Fe 1.870674497 1.8251066148 0.0
S -0.11787377608 1.76445056564 1.20182
S 1.68510622392 -0.0385294343571 3.83115
