4
q [0, 0, 0] , b 1  , div 0 / 10
Fe 0.09935 -0.07565 0.0057
Fe 1.90233 1.72733 0.0057
S 0.09935 1.72733 1.20752
S 1.90233 -0.07565 3.83685
4
q [0, 0, 0] , b 2  , div 1 / 10
Fe 0.0803758383912 -0.0612021356245 0.00461139686794
Fe 1.88335583839 1.74177786438 0.00461139686794
S 0.0803758383912 1.74177786438 1.20643139687
S 1.88335583839 -0.0612021356245 3.83576139687
4
q [0, 0, 0] , b 3  , div 2 / 10
Fe 0.0307008383912 -0.0233771356245 0.00176139686794
Fe 1.83368083839 1.77960286438 0.00176139686794
S 0.0307008383912 1.77960286438 1.20358139687
S 1.83368083839 -0.0233771356245 3.83291139687
4
q [0, 0, 0] , b 4  , div 3 / 10
Fe -0.0307008383912 0.0233771356245 -0.00176139686794
Fe 1.77227916161 1.82635713562 -0.00176139686794
S -0.0307008383912 1.82635713562 1.20005860313
S 1.77227916161 0.0233771356245 3.82938860313
4
q [0, 0, 0] , b 5  , div 4 / 10
Fe -0.0803758383912 0.0612021356245 -0.00461139686794
Fe 1.72260416161 1.86418213562 -0.00461139686794
S -0.0803758383912 1.86418213562 1.19720860313
S 1.72260416161 0.0612021356245 3.82653860313
4
q [0, 0, 0] , b 6  , div 5 / 10
Fe -0.09935 0.07565 -0.0057
Fe 1.70363 1.87863 -0.0057
S -0.09935 1.87863 1.19612
S 1.70363 0.07565 3.82545
4
q [0, 0, 0] , b 7  , div 6 / 10
Fe -0.0803758383912 0.0612021356245 -0.00461139686794
Fe 1.72260416161 1.86418213562 -0.00461139686794
S -0.0803758383912 1.86418213562 1.19720860313
S 1.72260416161 0.0612021356245 3.82653860313
4
q [0, 0, 0] , b 8  , div 7 / 10
Fe -0.0307008383912 0.0233771356245 -0.00176139686794
Fe 1.77227916161 1.82635713562 -0.00176139686794
S -0.0307008383912 1.82635713562 1.20005860313
S 1.77227916161 0.0233771356245 3.82938860313
4
q [0, 0, 0] , b 9  , div 8 / 10
Fe 0.0307008383912 -0.0233771356245 0.00176139686794
Fe 1.83368083839 1.77960286438 0.00176139686794
S 0.0307008383912 1.77960286438 1.20358139687
S 1.83368083839 -0.0233771356245 3.83291139687
4
q [0, 0, 0] , b 10  , div 9 / 10
Fe 0.0803758383912 -0.0612021356245 0.00461139686794
Fe 1.88335583839 1.74177786438 0.00461139686794
S 0.0803758383912 1.74177786438 1.20643139687
S 1.88335583839 -0.0612021356245 3.83576139687
